<?xml version='1.0' encoding='UTF-8'?>
<edges>
  <edge id="83661224" from="974190855" to="974190872" numLanes="1" width="4.0" shape="-195.336964,413.675861 -191.337872,410.350710 -191.218313,410.242870 -191.107815,410.125763 -140.574605,352.054678 -140.477459,351.933890 -140.389959,351.805942 -90.784005,272.868721 -90.749993,272.812574 -87.618593,267.446417 "/>
  <edge id="83661225" from="974190847" to="974190925" numLanes="1" width="4.0" shape="-74.414084,-245.657687 -2.675229,-215.275477 "/>
  <edge id="83661236" from="974190876" to="4905431609" numLanes="1" width="4.0" shape="-253.774907,-204.246364 -270.372748,-198.032503 -270.400180,-198.022003 -302.678577,-185.394153 -302.732605,-185.372102 -321.037063,-177.587963 -321.082515,-177.567964 -328.721547,-174.092987 -341.062778,-168.913735 -349.238080,-166.170069 -349.400217,-166.107697 -365.676654,-159.020281 -365.808194,-158.957200 -372.038151,-155.684955 -396.516430,-142.899174 "/>
  <edge id="83661239" from="974190883" to="974190826" numLanes="1" width="4.0" shape="3.457572,-260.766606 -3.566706,-244.146327 -4.229524,-243.396807 -5.224964,-243.497843 -51.338463,-264.388878 "/>
  <edge id="83661252" from="6558001638" to="974190876" numLanes="1" width="4.0" shape="-142.785442,-162.156446 -163.487342,-171.566718 -163.499560,-171.572223 -188.628728,-182.792400 -191.043045,-184.605481 -191.212623,-184.719756 -191.392984,-184.816118 -196.356962,-187.150298 -196.491650,-187.207709 -221.603150,-196.841402 -221.699813,-196.875669 -244.904756,-204.437936 "/>
  <edge id="83661253" from="974190757" to="974190799" numLanes="1" width="4.0" shape="-107.144001,89.766098 -119.007230,85.060611 "/>
  <edge id="99269443" from="974190798" to="974190844" numLanes="1" width="4.0" shape="-152.447462,157.635556 -252.587728,116.935047 "/>
  <edge id="99269457" from="974190844" to="974190924" numLanes="1" width="4.0" shape="-251.485713,119.535351 -212.500460,22.784747 "/>
  <edge id="99269495" from="974190782" to="974190825" numLanes="1" width="4.0" shape="-144.939727,-136.795560 -138.825721,-134.340669 -138.803920,-134.332063 -123.534088,-128.407772 -89.370651,-114.616938 -81.242417,-110.949378 -81.188412,-110.925961 -50.540862,-98.169166 "/>
  <edge id="99269573" from="974190924" to="974190965" numLanes="1" width="4.0" shape="-215.106407,23.890949 -115.030271,64.429250 "/>
  <edge id="99269577" from="1148198365" to="4916794364" numLanes="1" width="4.0" shape="224.340196,-451.280936 251.779676,-520.278102 251.843235,-520.464046 251.888240,-520.655331 251.914255,-520.850108 252.725731,-530.530180 "/>
  <edge id="100552490" from="957292488" to="1148198157" numLanes="1" width="4.0" shape="256.456941,-519.399613 229.532830,-449.014604 "/>
  <edge id="172091640" from="1830316028" to="1830316027" numLanes="1" width="4.0" shape="0.996193,-27.568497 5.887649,-40.288674 "/>
  <edge id="172091652" from="974190889" to="974190883" numLanes="1" width="4.0" shape="-28.160895,-276.654791 2.391610,-263.426432 "/>
  <edge id="172226994" from="4916794362" to="957292488" numLanes="1" width="4.0" shape="260.985394,-530.436697 256.474661,-519.444318 "/>
  <edge id="499237461" from="4905412367" to="4905412381" numLanes="1" width="4.0" shape="-345.445118,155.765786 -344.816600,156.003172 -344.659634,156.055151 -344.498911,156.093986 -332.268580,158.518910 -332.248860,158.522717 -327.697531,159.377707 "/>
  <edge id="499237462" from="4905412381" to="4905412387" numLanes="1" width="4.0" shape="-327.693273,159.576255 -332.096801,160.600692 -332.331502,160.670689 -344.637155,165.178077 -344.861601,165.276268 -345.030941,165.363072 "/>
  <edge id="499237464" from="4905412370" to="4905412388" numLanes="1" width="4.0" shape="-355.388562,177.993993 -355.079644,191.956871 -355.077356,192.017990 -354.828875,196.728366 "/>
  <edge id="499237467" from="4905412388" to="4905412371" numLanes="1" width="4.0" shape="-355.372068,196.853573 -357.828032,191.050915 -357.941081,190.824804 -364.326629,179.847759 "/>
  <edge id="499237471" from="4905412404" to="Custom114" numLanes="1" width="4.0" shape="-437.877901,-115.011922 -445.377725,-137.830712 -445.444721,-138.006277 -445.757581,-138.723088 "/>
  <edge id="499240230" from="4905432322" to="4905432327" numLanes="1" width="4.0" shape="-357.370182,-88.667387 -354.194200,-81.211302 -348.674416,-68.256407 -334.465951,-34.893547 -332.157895,-29.462713 -332.743826,-26.695082 -333.883275,-25.079029 -337.034373,-23.677697 -338.545080,-23.005867 -338.585348,-22.987423 -372.424175,-7.032193 -372.609370,-6.932654 -372.783092,-6.814224 -372.943421,-6.678210 -374.698765,-5.022774 -374.834463,-4.881626 -374.955708,-4.727886 -375.061340,-4.563027 -375.150345,-4.388628 -375.221871,-4.206363 -375.275232,-4.017977 -375.309917,-3.825276 -375.325593,-3.630107 -375.322110,-3.434341 -375.161152,-1.026896 -375.136119,-0.818142 -375.089309,-0.613169 -375.021241,-0.414243 -371.544663,8.232712 -371.453333,8.428570 -371.341404,8.613430 -371.210184,8.785135 -369.682645,10.574609 -369.552806,10.712860 -369.410456,10.838191 -369.256874,10.949474 -369.093442,11.045709 -368.921628,11.126030 -368.742979,11.189715 -368.559101,11.236192 -368.371647,11.265042 -368.182303,11.276006 -367.992771,11.268985 -365.648375,11.070506 -365.434341,11.040668 -365.224775,10.987912 -365.022124,10.912852 -342.236056,1.042502 -339.422281,-0.108662 -339.365697,-0.132835 -330.853594,-3.925007 "/>
  <edge id="499240231" from="4905432328" to="Custom115" numLanes="1" width="4.0" shape="-394.829329,-127.873411 -425.621738,-114.869025 "/>
  <edge id="499670199" from="4909146972" to="4909146975" numLanes="1" width="4.0" shape="-136.149030,367.470399 -74.406949,413.263547 -73.766946,414.170474 -74.079118,415.235682 -80.873612,425.099536 -81.665462,425.692578 -82.607604,425.390769 -146.598674,378.261320 "/>
  <edge id="500072922" from="4912238313" to="Custom116" numLanes="1" width="4.0" shape="-290.910537,337.529679 -369.510471,416.914207 "/>
  <edge id="500072924" from="4912238320" to="Custom117" numLanes="1" width="4.0" shape="-315.955164,322.695985 -312.787724,331.650846 -379.236005,401.205448 "/>
  <edge id="500072931" from="4912238824" to="4912238825" numLanes="1" width="4.0" shape="-421.329742,361.060369 -342.097426,290.926034 "/>
  <edge id="500072932" from="4912238822" to="4912238823" numLanes="1" width="4.0" shape="-341.598508,303.688039 -409.763256,366.871506 "/>
  <edge id="500134667" from="1830316033" to="4912676357" numLanes="1" width="4.0" shape="-28.753371,125.338788 -22.097057,128.516967 "/>
  <edge id="500404848" from="4905412396" to="4905412397" numLanes="1" width="4.0" shape="-333.668491,4.576588 -337.513626,9.025691 -343.435836,13.478241 -356.450734,19.760021 -380.613618,28.502189 -390.749220,32.110051 "/>
  <edge id="500404851" from="974190883" to="974190806" numLanes="1" width="4.0" shape="9.819697,-260.285799 21.731267,-255.583035 22.497990,-254.937049 22.421555,-253.937389 7.136994,-217.829411 "/>
  <edge id="500696925" from="4916839175" to="4916839176" numLanes="1" width="4.0" shape="189.978875,-360.898540 191.168297,-360.436289 "/>
  <edge id="500696926" from="4916839175" to="Custom118" numLanes="1" width="4.0" shape="182.659529,-365.384939 167.786528,-362.398047 167.771131,-362.400181 167.770373,-362.415707 170.574460,-371.911371 178.414431,-376.547571 178.577561,-376.655127 178.729417,-376.778089 178.868549,-376.915282 178.993630,-377.065398 179.103465,-377.227002 179.197007,-377.398554 179.273361,-377.578414 198.230700,-429.096378 "/>
  <edge id="500701501" from="4916901391" to="4916901395" numLanes="1" width="4.0" shape="27.117294,50.739844 32.785622,53.831421 93.376695,86.900999 103.405640,92.373273 103.591334,92.462509 103.785223,92.532168 103.985250,92.581511 104.189291,92.610014 104.395183,92.617376 104.600739,92.603517 104.803778,92.568586 105.002147,92.512952 110.905270,90.524172 "/>
  <edge id="500701502" from="4916901393" to="4916901394" numLanes="1" width="4.0" shape="144.499084,73.713316 205.736800,-54.501029 "/>
  <edge id="500701508" from="4916901416" to="4916901417" numLanes="1" width="4.0" shape="224.559490,-126.807162 195.052443,-64.247721 "/>
  <edge id="500701509" from="4916901415" to="4916901414" numLanes="1" width="4.0" shape="194.618359,-141.667198 163.594751,-75.576934 "/>
  <edge id="500701510" from="4916901418" to="4916901419" numLanes="1" width="4.0" shape="206.718764,-131.198489 178.933494,-72.353374 "/>
  <edge id="698239570" from="Custom119" to="Custom120" numLanes="1" width="4.0" shape="-369.951677,-164.865533 -404.551894,-149.334926 -404.592521,-149.316141 -412.930021,-145.347281 -431.834066,-136.353194 -432.413204,-136.201937 -432.818938,-136.147053 -433.446393,-136.264209 -434.391493,-136.573894 -435.597644,-137.184622 -440.032471,-139.733394 -442.947625,-141.574651 "/>
  <edge id="698296811" from="1830316036" to="1830316037" numLanes="1" width="4.0" shape="-40.382567,85.425923 -43.452505,93.949006 "/>
  <edge id="48204250_1" from="9823252610" to="4916794362" numLanes="1" width="4.0" shape="250.152483,-538.200193 248.420062,-541.036501 247.542152,-544.278254 247.630709,-547.619994 248.679231,-550.796456 250.598977,-553.529663 253.256786,-555.618512 255.240733,-556.512180 257.334778,-556.991626 261.185938,-556.836170 264.708315,-555.439034 267.618324,-552.933656 269.170676,-550.468848 270.054000,-547.666396 270.134632,-544.211291 269.207074,-540.911653 267.317568,-538.003511 265.585409,-536.418891 264.306574,-535.668744 "/>
  <edge id="82226786_1" from="957292453" to="4916901391" numLanes="1" width="4.0" shape="46.869979,-8.113065 43.108687,-4.165483 42.984397,-4.021975 42.874274,-3.867329 42.779310,-3.702938 42.700362,-3.530283 24.195876,42.611710 "/>
  <edge id="82226791_1" from="957292478" to="957292482" numLanes="1" width="4.0" shape="49.438014,-53.836043 52.640054,-54.004249 "/>
  <edge id="82226789_1" from="957292482" to="974190866" numLanes="1" width="4.0" shape="60.415142,-58.577659 62.739423,-60.279126 62.882386,-60.394218 63.014197,-60.521930 63.133746,-60.661188 63.240025,-60.810818 63.332141,-60.969561 63.409316,-61.136080 116.732532,-191.565011 "/>
  <edge id="500696927_1" from="974190927" to="974190866" numLanes="1" width="4.0" shape="22.620434,-214.377246 26.636132,-215.356388 31.642420,-215.743344 40.229923,-214.717367 79.928524,-204.816888 111.990139,-195.251439 "/>
  <edge id="500696927_2" from="974190866" to="1830315991" numLanes="1" width="4.0" shape="119.491487,-192.797688 121.776132,-191.983515 "/>
  <edge id="500404842_1" from="974190861" to="974190762" numLanes="1" width="4.0" shape="-105.661493,-229.408599 -91.682680,-224.037426 "/>
  <edge id="500404842_2" from="974190762" to="974190823" numLanes="1" width="4.0" shape="-84.259609,-221.130007 -53.262823,-208.724738 -11.963742,-192.201729 "/>
  <edge id="83661220_1" from="974190762" to="974190847" numLanes="1" width="4.0" shape="-83.880838,-227.431627 -76.958240,-244.601562 "/>
  <edge id="83661220_2" from="974190847" to="974190854" numLanes="1" width="4.0" shape="-73.966653,-252.021067 -71.318364,-258.588751 "/>
  <edge id="83661242_1" from="974190920" to="974190855" numLanes="1" width="4.0" shape="-207.530284,418.303930 -201.988843,416.619835 -200.945822,416.654637 "/>
  <edge id="83661229_1" from="974190925" to="974190823" numLanes="1" width="4.0" shape="-1.565738,-212.598782 -7.861509,-197.030870 "/>
  <edge id="83661233_1" from="-101867" to="974190907" numLanes="1" width="4.0" shape="-50.550834,-75.376841 -40.461984,-71.896050 "/>
  <edge id="83661233_2" from="974190907" to="974190817" numLanes="1" width="4.0" shape="-32.970404,-69.218879 26.796029,-47.117353 27.002733,-47.053393 27.215137,-47.012138 27.430754,-46.994069 32.316738,-46.849968 "/>
  <edge id="83661242_3" from="974190777" to="974190920" numLanes="1" width="4.0" shape="-206.906147,417.987569 -206.852300,417.943913 "/>
  <edge id="83661235_1" from="974190777" to="4912238313" numLanes="1" width="4.0" shape="-212.485778,414.648599 -282.503590,337.706732 "/>
  <edge id="172091646_1" from="974190854" to="974190826" numLanes="1" width="4.0" shape="-72.401667,-257.491521 -58.945756,-263.118249 "/>
  <edge id="172091646_2" from="974190826" to="974190889" numLanes="1" width="4.0" shape="-51.310260,-266.310857 -26.594722,-276.644945 "/>
  <edge id="83661227_2" from="974190872" to="974190882" numLanes="1" width="4.0" shape="-87.558904,258.517333 -87.608532,258.429615 -88.345715,253.362576 -88.170816,252.668438 "/>
  <edge id="83661227_3" from="974190882" to="974190864" numLanes="1" width="4.0" shape="-84.983932,246.631808 -82.188423,243.474179 "/>
  <edge id="83661240_1" from="974190882" to="974190769" numLanes="1" width="4.0" shape="-92.079332,244.936723 -148.348082,221.947544 "/>
  <edge id="83661240_2" from="974190769" to="4905412381" numLanes="1" width="4.0" shape="-155.706548,218.881015 -290.275180,161.695158 -290.501537,161.614644 -300.318957,158.774196 -300.509025,158.729135 -300.702581,158.702830 -316.331673,157.351890 "/>
  <edge id="82226786_2" from="4916901391" to="1148198856" numLanes="1" width="4.0" shape="21.222756,50.042072 3.081454,95.482842 "/>
  <edge id="82226786_3" from="1148198856" to="974190842" numLanes="1" width="4.0" shape="0.049543,102.837104 -30.613788,174.914354 -50.316141,210.903489 -62.369339,232.920360 -62.450764,233.087002 -62.516401,233.260471 -62.565687,233.439274 -64.214491,240.724277 "/>
  <edge id="83661245_1" from="1148198856" to="974190961" numLanes="1" width="4.0" shape="0.514695,96.570328 0.099969,96.400119 "/>
  <edge id="83661250_2" from="974190961" to="957292472" numLanes="1" width="4.0" shape="-1.013310,93.765059 38.786703,-5.343777 38.857346,-5.552172 38.904668,-5.767066 38.928096,-5.985858 39.092922,-9.175097 "/>
  <edge id="83661227_4" from="974190886" to="974190872" numLanes="1" width="4.0" shape="-82.323443,264.601929 -82.560192,264.507622 -83.004129,264.118147 "/>
  <edge id="83661246_1" from="974190886" to="4909146972" numLanes="1" width="4.0" shape="-83.391854,269.849011 -86.636104,273.976338 -86.780167,274.185752 -127.170940,341.721604 -134.406475,353.819863 -137.715200,359.032229 "/>
  <edge id="99269441_2" from="6558001638" to="974190861" numLanes="1" width="4.0" shape="-136.559563,-161.674924 -131.472547,-173.913580 -131.459686,-173.945284 -120.703309,-201.126477 -120.698282,-201.139309 -112.498471,-222.284811 -111.165472,-225.016929 -109.503338,-226.613480 -107.530003,-228.174640 -105.917049,-229.107106 -104.647299,-229.297680 "/>
  <edge id="99269432_1" from="974190769" to="974190757" numLanes="1" width="4.0" shape="-150.142854,218.694435 -148.663441,210.308623 -142.469179,194.448789 -124.297314,149.027524 -124.285623,148.997608 -115.806461,126.775325 -103.829880,97.559693 "/>
  <edge id="99269434_1" from="974190965" to="974190799" numLanes="1" width="4.0" shape="-116.135412,61.830460 -121.368323,74.865538 -123.827648,80.987678 "/>
  <edge id="99269434_2" from="974190799" to="974190798" numLanes="1" width="4.0" shape="-126.809951,88.410837 -128.318653,92.165667 -153.533265,154.938707 -153.534098,154.940785 -155.057221,158.744981 "/>
  <edge id="83661254_1" from="957292462" to="1830316027" numLanes="1" width="4.0" shape="27.904421,-37.805825 20.336757,-41.701338 20.073552,-41.813790 9.890121,-45.326364 "/>
  <edge id="83661229_4" from="974190904" to="974190828" numLanes="1" width="4.0" shape="-68.403741,-45.452867 -80.319191,-12.838043 -95.387726,23.847163 -101.625253,38.087469 "/>
  <edge id="99269449_1" from="974190904" to="974190863" numLanes="1" width="4.0" shape="-67.994065,-51.977059 -76.764286,-55.879400 -76.893151,-55.931453 -80.916311,-57.396123 -97.557499,-63.454507 -110.390138,-69.208715 -110.407587,-69.216440 -132.070341,-78.682915 -132.072933,-78.684045 -142.422276,-83.189224 -156.097802,-89.142326 -156.172694,-89.173139 -163.099259,-91.860310 "/>
  <edge id="99269449_2" from="974190863" to="974190911" numLanes="1" width="4.0" shape="-170.526879,-94.781485 -180.906775,-98.919313 -197.692058,-105.684725 -206.272847,-109.419362 -219.440583,-115.150386 -219.507984,-115.178271 -231.459526,-119.869369 -246.836921,-126.030239 -261.276577,-131.815409 -269.772027,-135.422102 "/>
  <edge id="99269441_1" from="974190869" to="974190863" numLanes="1" width="4.0" shape="-202.926515,1.214010 -201.877534,-1.227304 -201.849858,-1.295110 -200.101725,-5.812824 -198.651333,-9.561085 -198.649078,-9.566939 -194.780659,-19.658073 -189.203930,-33.319575 -189.197254,-33.336141 -181.580541,-52.481953 -181.555200,-52.549138 -176.459553,-66.830342 -171.105803,-79.393619 -167.476132,-86.970964 "/>
  <edge id="99269441_3" from="974190863" to="974190782" numLanes="1" width="4.0" shape="-164.184589,-94.385533 -159.513079,-105.786915 -150.561062,-127.236199 -150.531551,-127.311116 -147.422063,-135.696139 "/>
  <edge id="99269441_4" from="974190782" to="6558001638" numLanes="1" width="4.0" shape="-144.517087,-143.059504 -141.289715,-150.769679 -139.733566,-154.281627 "/>
  <edge id="83661229_2" from="974190823" to="974190825" numLanes="1" width="4.0" shape="-10.938538,-189.704925 -20.647383,-167.426968 -34.981839,-134.496386 -35.019513,-134.403548 -43.762648,-111.207485 -43.779870,-111.159985 -46.652328,-102.913763 "/>
  <edge id="83661229_5" from="974190825" to="-101867" numLanes="1" width="4.0" shape="-49.374646,-95.454967 -54.121492,-83.022342 "/>
  <edge id="99269546_1" from="1148198157" to="4916839176" numLanes="1" width="4.0" shape="229.549864,-449.057637 223.703037,-434.772519 209.159906,-399.223489 195.284761,-365.310966 "/>
  <edge id="48204250_2" from="4916794362" to="4916794364" numLanes="1" width="4.0" shape="259.982133,-534.318771 259.702427,-534.246843 255.794735,-534.635177 255.538379,-534.758041 "/>
  <edge id="48204250_3" from="4916794364" to="9823252610" numLanes="1" width="4.0" shape="251.459977,-537.062553 249.818592,-538.612025 "/>
  <edge id="99269581_1" from="974190828" to="974190869" numLanes="1" width="4.0" shape="-100.994424,37.290759 -104.406716,39.853770 -106.852828,40.895259 -109.536158,41.051879 -112.851226,40.006210 -141.780624,28.499413 -196.338101,6.320366 -201.876373,3.881352 "/>
  <edge id="99269581_2" from="974190869" to="974190793" numLanes="1" width="4.0" shape="-209.278653,0.725685 -219.909170,-3.658013 -248.898512,-15.604637 -284.097859,-31.068732 -297.873655,-37.120840 -297.921257,-37.141023 -310.203725,-42.162419 "/>
  <edge id="83661227_5" from="974190843" to="974190886" numLanes="1" width="4.0" shape="-66.764765,261.289574 -66.851901,261.453532 -70.479848,264.637105 -74.642186,266.089895 -75.285563,266.069286 "/>
  <edge id="171894150_1" from="974190843" to="4909146967" numLanes="1" width="4.0" shape="-60.254594,262.128319 -31.049046,274.866096 "/>
  <edge id="171894150_2" from="4909146967" to="974190949" numLanes="1" width="4.0" shape="-23.698932,278.049845 10.351866,292.697709 14.458922,296.506925 15.976877,302.164498 14.902925,310.280871 -45.042815,418.202012 -103.534831,510.266534 -107.932037,512.804459 -112.860226,512.627202 -118.687930,508.670126 -188.390238,439.382527 "/>
  <edge id="172091645_1" from="Custom121" to="1830316028" numLanes="1" width="4.0" shape="-32.322163,-33.740681 -6.754728,-24.093719 "/>
  <edge id="172091645_2" from="1830316028" to="Custom122" numLanes="1" width="4.0" shape="0.730973,-21.270270 14.978367,-15.898382 "/>
  <edge id="172091658_1" from="1830316037" to="1830316033" numLanes="1" width="4.0" shape="-46.309301,101.315096 -50.060320,110.332063 -50.131472,110.532565 -50.180923,110.739491 -50.208114,110.950499 -50.386958,113.332535 -50.391896,113.534213 -50.376493,113.735363 -50.340904,113.933938 -50.285491,114.127917 -50.210818,114.315327 -50.117645,114.494262 -50.006921,114.662899 -49.879770,114.819524 -49.737489,114.962543 -47.969499,116.568873 -47.804646,116.703363 -47.626441,116.819580 -47.436898,116.916209 -35.968801,122.013441 "/>
  <edge id="172091658_2" from="1830316033" to="1830316037" numLanes="1" width="4.0" shape="-28.162711,118.834902 -24.397023,109.384252 -24.328789,109.182322 -24.282432,108.974277 -24.258479,108.762481 -24.117135,106.381922 -24.115391,106.179201 -24.134179,105.977345 -24.173305,105.778427 -24.232367,105.584493 -24.310758,105.397534 -24.407673,105.219471 -24.522117,105.052134 -24.652912,104.897243 -24.798716,104.756388 -26.595619,103.188530 -26.763464,103.057154 -26.944337,102.944385 -27.136183,102.851507 -38.463984,98.094744 "/>
  <edge id="497508120_1" from="Custom123" to="4912238826" numLanes="1" width="4.0" shape="-394.314207,399.297285 -393.346214,398.344978 "/>
  <edge id="499237460_1" from="4905412367" to="4905412387" numLanes="1" width="4.0" shape="-349.976507,157.464779 -349.923506,163.681700 "/>
  <edge id="499237463_1" from="4905412376" to="4905412400" numLanes="1" width="4.0" shape="-373.072996,143.529435 -373.076039,142.431802 -373.076366,142.400768 -373.327139,128.691587 -373.337377,128.522789 -373.361839,128.355459 -373.400349,128.190793 -383.616773,91.565398 -397.564819,40.780771 "/>
  <edge id="499237460_2" from="4905412387" to="4905412370" numLanes="1" width="4.0" shape="-352.514489,169.782891 -354.206367,171.737031 "/>
  <edge id="499237466_1" from="4905412404" to="4905412402" numLanes="1" width="4.0" shape="-438.238281,-109.091042 -436.590320,-107.280613 -406.596165,-4.406957 "/>
  <edge id="499237460_4" from="4905412370" to="4905412371" numLanes="1" width="4.0" shape="-357.945638,173.761047 -361.351620,175.287051 -364.099569,175.331476 "/>
  <edge id="499237460_5" from="4905412371" to="4905412376" numLanes="1" width="4.0" shape="-368.054944,175.144023 -372.331898,172.902538 -376.728428,168.780640 -379.019750,161.066222 -376.998290,154.633136 -373.930074,149.533267 "/>
  <edge id="499237468_1" from="974190876" to="974190911" numLanes="1" width="4.0" shape="-251.814176,-200.058658 -252.226582,-196.801275 -253.529487,-192.375046 -268.889226,-150.610949 -271.406919,-144.675009 -274.112931,-139.614734 "/>
  <edge id="499237466_2" from="4905412402" to="4905412397" numLanes="1" width="4.0" shape="-404.459836,3.253281 -396.808849,31.984975 "/>
  <edge id="499237466_3" from="4905412397" to="4905412378" numLanes="1" width="4.0" shape="-394.723129,39.721086 -370.733832,127.616109 -370.677535,127.790494 -370.605513,127.958995 -364.797162,139.990775 -364.734772,140.109649 -363.237106,142.744333 "/>
  <edge id="499237463_2" from="4905412400" to="4905412401" numLanes="1" width="4.0" shape="-399.681989,33.066753 -407.670302,3.940377 "/>
  <edge id="499237463_3" from="4905412401" to="4905412404" numLanes="1" width="4.0" shape="-409.850411,-3.786962 -439.394164,-105.652388 -438.520266,-109.021340 "/>
  <edge id="500404845_1" from="4905431608" to="4905432322" numLanes="1" width="4.0" shape="-381.737450,-99.047401 -380.318497,-95.376002 -380.196936,-95.117914 -377.667706,-90.612839 -377.570642,-90.457140 -377.459717,-90.310990 -377.335867,-90.175622 -375.724802,-88.569322 -375.563999,-88.425432 -375.388630,-88.299704 -373.352123,-87.000018 -373.173972,-86.898775 -372.986396,-86.816293 -372.791366,-86.753436 -372.590927,-86.710864 -372.387185,-86.689025 -370.735095,-86.597186 -370.492365,-86.598445 -369.015449,-86.695928 -368.848405,-86.714027 -368.683470,-86.746083 -365.556361,-87.491414 -365.403721,-87.534255 -365.254954,-87.589051 -360.028329,-89.753133 "/>
  <edge id="500404845_2" from="4905432322" to="1830316052" numLanes="1" width="4.0" shape="-352.628136,-93.282698 -345.427790,-97.193171 -318.447388,-109.374209 -318.417660,-109.387925 -299.414404,-118.344773 -286.639390,-123.921318 -282.148289,-124.605784 "/>
  <edge id="499237468_3" from="4905432327" to="4905412396" numLanes="1" width="4.0" shape="-330.083785,-3.136154 -333.961779,5.026077 "/>
  <edge id="500404843_1" from="4905431609" to="4905432328" numLanes="1" width="4.0" shape="-397.456391,-140.406472 -393.672208,-130.599061 "/>
  <edge id="500404843_2" from="4905432328" to="4905431608" numLanes="1" width="4.0" shape="-390.825788,-123.138712 -381.743208,-99.062477 "/>
  <edge id="83661246_2" from="4909146972" to="4909146975" numLanes="1" width="4.0" shape="-142.346639,365.080768 -149.779403,373.198823 "/>
  <edge id="83661246_3" from="4909146975" to="974190831" numLanes="1" width="4.0" shape="-155.181861,379.098891 -187.611077,414.512174 -187.790883,414.739648 -189.263317,416.908912 "/>
  <edge id="497508120_2" from="4912238826" to="4912238320" numLanes="1" width="4.0" shape="-387.651409,392.709887 -319.026274,324.409582 "/>
  <edge id="497508120_3" from="4912238320" to="4912238319" numLanes="1" width="4.0" shape="-311.229085,316.651653 -310.396626,315.823826 "/>
  <edge id="500072926_1" from="4912238320" to="4912238317" numLanes="1" width="4.0" shape="-322.598914,316.550973 -324.841429,316.708981 "/>
  <edge id="500072926_2" from="4912238317" to="4912238318" numLanes="1" width="4.0" shape="-332.960447,320.316163 -396.968576,381.868652 "/>
  <edge id="500072928_1" from="4912238317" to="4912238822" numLanes="1" width="4.0" shape="-328.763768,314.513635 -333.684404,305.060308 "/>
  <edge id="500072928_2" from="4912238822" to="4912238825" numLanes="1" width="4.0" shape="-337.197943,297.964778 -341.613228,288.577237 "/>
  <edge id="500072930_1" from="4912238824" to="4912238823" numLanes="1" width="4.0" shape="-424.080476,360.966015 -415.568804,369.610493 "/>
  <edge id="83661250_1" from="1148198215" to="4912676357" numLanes="1" width="4.0" shape="-73.677766,238.353083 -68.039383,231.211414 -67.880522,230.978043 -34.783510,174.104726 -34.670038,173.877726 -17.341481,132.898733 "/>
  <edge id="83661250_3" from="4912676357" to="974190961" numLanes="1" width="4.0" shape="-14.236668,125.517634 -4.058859,101.193629 "/>
  <edge id="500404850_2" from="974190806" to="974190759" numLanes="1" width="4.0" shape="10.459508,-210.086199 13.264449,-209.031339 "/>
  <edge id="82226789_2" from="974190866" to="4916839175" numLanes="1" width="4.0" shape="119.806144,-198.916429 165.954964,-306.885229 165.970106,-306.921645 187.329921,-359.753639 "/>
  <edge id="82226789_3" from="4916839175" to="1148198365" numLanes="1" width="4.0" shape="190.328678,-367.170213 224.335916,-451.270260 "/>
  <edge id="500701503_1" from="4916901395" to="4916901393" numLanes="1" width="4.0" shape="115.381339,83.080095 115.008753,80.815953 116.489794,75.444739 120.445729,71.297635 126.362771,69.691078 132.826942,71.157451 136.420235,73.806498 "/>
  <edge id="500701503_2" from="4916901393" to="4916901395" numLanes="1" width="4.0" shape="137.433935,79.744318 135.671257,86.472258 131.001122,91.499916 124.250850,92.414312 119.381149,90.297287 118.216027,88.996656 "/>
  <edge id="500701506_1" from="4916901394" to="4916901417" numLanes="1" width="4.0" shape="204.830612,-57.149796 199.627081,-59.766501 "/>
  <edge id="500701507_1" from="4916901415" to="4916901418" numLanes="1" width="4.0" shape="195.539316,-139.026037 205.763062,-133.949293 "/>
  <edge id="500701507_2" from="4916901418" to="4916901416" numLanes="1" width="4.0" shape="212.928929,-130.391767 225.479192,-124.162509 "/>
  <edge id="500701506_2" from="4916901417" to="4916901419" numLanes="1" width="4.0" shape="192.479697,-63.360472 183.506259,-67.872350 "/>
  <edge id="500701506_3" from="4916901419" to="4916901414" numLanes="1" width="4.0" shape="176.357203,-71.464834 166.302808,-76.514348 "/>
  <edge id="83661245_2" from="974190961" to="1830316036" numLanes="1" width="4.0" shape="-6.975011,93.103823 -13.242759,89.820351 -13.423773,89.736744 -32.687857,81.979295 "/>
  <edge id="83661245_3" from="1830316036" to="974190814" numLanes="1" width="4.0" shape="-39.943770,78.851939 -66.467953,66.652901 -85.325452,57.595898 "/>
  <edge id="82226791_3" from="957292482" to="957292458" numLanes="1" width="4.0" shape="60.319587,-53.290538 62.184156,-53.081867 65.955457,-50.002555 "/>
  <edge id="82226791_5" from="957292458" to="957292453" numLanes="1" width="4.0" shape="68.988953,-47.200304 72.471426,-40.167106 73.651453,-32.701028 71.766989,-23.895304 64.496665,-15.766540 58.434701,-12.951995 51.818567,-11.790152 "/>
  <edge id="99269546_2" from="4916839176" to="1830315991" numLanes="1" width="4.0" shape="192.255605,-357.906445 173.140653,-311.175887 125.896538,-196.985461 "/>
  <edge id="99269546_3" from="1830315991" to="957292458" numLanes="1" width="4.0" shape="122.843026,-189.587516 69.632903,-60.365374 69.569766,-60.189002 69.523407,-60.007496 69.494235,-59.822449 68.767899,-53.216511 "/>
  <edge id="82226791_4" from="957292462" to="974190817" numLanes="1" width="4.0" shape="33.066560,-37.890705 33.569373,-41.586079 35.599756,-44.326568 "/>
  <edge id="82226791_6" from="974190817" to="957292478" numLanes="1" width="4.0" shape="38.446714,-47.755050 42.473609,-50.636446 50.137299,-54.002099 "/>
  <edge id="99269432_2" from="974190907" to="974190759" numLanes="1" width="4.0" shape="-32.705924,-75.475599 18.113759,-205.041231 "/>
  <edge id="99269432_4" from="974190759" to="974190927" numLanes="1" width="4.0" shape="21.213672,-212.277670 21.622334,-213.155585 23.485520,-214.834573 "/>
  <edge id="83661242_2" from="974190855" to="974190831" numLanes="1" width="4.0" shape="-196.831666,418.133733 -194.150820,419.309688 -193.951854,419.548529 "/>
  <edge id="83661235_2" from="4912238313" to="4912238319" numLanes="1" width="4.0" shape="-287.887173,331.789699 -304.799491,313.198213 "/>
  <edge id="83661235_3" from="4912238319" to="4905412388" numLanes="1" width="4.0" shape="-309.643355,307.163904 -322.625697,288.772027 -336.069962,260.996714 -349.954280,210.043964 "/>
  <edge id="83661227_6" from="974190842" to="974190843" numLanes="1" width="4.0" shape="-65.456295,249.505229 -64.489938,252.878372 -64.669418,254.500289 "/>
  <edge id="82226791_2" from="957292453" to="957292472" numLanes="1" width="4.0" shape="47.468619,-12.270958 42.919827,-13.043606 "/>
  <edge id="82226791_7" from="957292472" to="957292462" numLanes="1" width="4.0" shape="38.365451,-18.393721 35.331098,-22.451902 33.822719,-28.219334 32.775618,-33.287613 "/>