<?xml version="1.0" encoding="UTF-8"?>

<!-- generated on 2022-07-29 17:21:57 by Eclipse SUMO netedit Version 1.13.0
<configuration xmlns:xsi="http://www.w3.org/2001/XMLSchema-instance" xsi:noNamespaceSchemaLocation="http://sumo.dlr.de/xsd/netconvertConfiguration.xsd">

    <input>
        <sumo-net-file value="C:\Users\flihi\Desktop\car\sumo.net.xml"/>
    </input>

    <output>
        <output-file value="C:\Users\flihi\Desktop\car\sumo.net.xml"/>
    </output>

    <processing>
        <geometry.min-radius.fix.railways value="false"/>
        <geometry.max-grade.fix value="false"/>
        <offset.disable-normalization value="true"/>
        <lefthand value="false"/>
    </processing>

    <junctions>
        <no-turnarounds value="true"/>
        <junctions.corner-detail value="5"/>
        <junctions.limit-turn-speed value="5.5"/>
        <rectangular-lane-cut value="false"/>
    </junctions>

    <pedestrian>
        <walkingareas value="false"/>
    </pedestrian>

    <report>
        <aggregate-warnings value="5"/>
    </report>

</configuration>
-->

<net version="1.9" junctionCornerDetail="5" limitTurnSpeed="5.50" xmlns:xsi="http://www.w3.org/2001/XMLSchema-instance" xsi:noNamespaceSchemaLocation="http://sumo.dlr.de/xsd/net_file.xsd">

    <location netOffset="447.59,556.99" convBoundary="0.00,0.00,717.73,1069.80" origBoundary="-447.59,-556.99,270.13,512.80" projParameter="!"/>

    <edge id=":-101866_0" function="internal">
        <lane id=":-101866_0_0" index="0" speed="5.75" length="6.47" width="4.00" shape="393.64,490.34 391.91,489.98 390.47,490.25 389.32,491.16 388.46,492.71"/>
    </edge>
    <edge id=":-101866_1" function="internal">
        <lane id=":-101866_1_0" index="0" speed="13.89" length="8.00" width="4.00" shape="391.31,485.24 388.46,492.71"/>
    </edge>
    <edge id=":-101867_0" function="internal">
        <lane id=":-101867_0_0" index="0" speed="5.63" length="6.38" width="4.00" shape="395.34,474.68 394.95,476.40 395.21,477.81 396.13,478.91 397.69,479.72"/>
    </edge>
    <edge id=":-101867_1" function="internal">
        <lane id=":-101867_1_0" index="0" speed="13.89" length="8.00" width="4.00" shape="395.34,474.68 392.49,482.16"/>
    </edge>
    <edge id=":1148198157_0" function="internal">
        <lane id=":1148198157_0_0" index="0" speed="13.89" length="0.27" width="4.00" shape="679.04,108.56 678.94,108.82"/>
    </edge>
    <edge id=":1148198215_0" function="internal">
        <lane id=":1148198215_0_0" index="0" speed="9.46" length="5.07" width="4.00" shape="368.85,797.56 370.16,796.98 370.90,796.28 371.48,795.35 372.34,794.10"/>
    </edge>
    <edge id=":1148198215_1" function="internal">
        <lane id=":1148198215_1_0" index="0" speed="13.64" length="5.07" width="4.00" shape="368.85,797.56 370.28,797.22 371.30,797.24 372.34,797.44 373.83,797.68"/>
    </edge>
    <edge id=":1148198365_0" function="internal">
        <lane id=":1148198365_0_0" index="0" speed="13.89" length="0.30" width="4.00" shape="670.02,105.11 670.13,104.83"/>
    </edge>
    <edge id=":1148198856_0" function="internal">
        <lane id=":1148198856_0_0" index="0" speed="13.89" length="8.00" width="4.00" shape="452.53,653.21 449.48,660.61"/>
    </edge>
    <edge id=":1148198856_1" function="internal">
        <lane id=":1148198856_1_0" index="0" speed="5.69" length="6.41" width="4.00" shape="452.53,653.21 451.65,654.74 450.50,655.61 449.07,655.84 447.36,655.41"/>
    </edge>
    <edge id=":1830315991_0" function="internal">
        <lane id=":1830315991_0_0" index="0" speed="13.89" length="7.99" width="4.00" shape="575.34,360.78 572.28,368.16"/>
    </edge>
    <edge id=":1830315991_1" function="internal">
        <lane id=":1830315991_1_0" index="0" speed="5.59" length="1.92" width="4.00" shape="570.04,363.13 571.59,363.95 571.69,364.07"/>
    </edge>
    <edge id=":1830315991_2" function="internal">
        <lane id=":1830315991_2_0" index="0" speed="5.59" length="4.43" width="4.00" shape="571.69,364.07 572.48,365.06 572.71,366.46 572.28,368.16"/>
    </edge>
    <edge id=":1830316027_0" function="internal">
        <lane id=":1830316027_0_0" index="0" speed="13.89" length="8.00" width="4.00" shape="456.83,513.56 449.30,510.87"/>
    </edge>
    <edge id=":1830316027_1" function="internal">
        <lane id=":1830316027_1_0" index="0" speed="5.68" length="6.42" width="4.00" shape="451.61,515.98 452.01,514.26 451.75,512.84 450.85,511.71 449.30,510.87"/>
    </edge>
    <edge id=":1830316028_0" function="internal">
        <lane id=":1830316028_0_0" index="0" speed="5.72" length="6.46" width="4.00" shape="441.55,531.03 443.27,531.41 444.71,531.15 445.86,530.25 446.72,528.71"/>
    </edge>
    <edge id=":1830316028_1" function="internal">
        <lane id=":1830316028_1_0" index="0" speed="13.89" length="7.99" width="4.00" shape="441.55,531.03 449.03,533.85"/>
    </edge>
    <edge id=":1830316033_0" function="internal">
        <lane id=":1830316033_0_0" index="0" speed="5.62" length="6.38" width="4.00" shape="412.43,677.18 414.13,677.66 415.55,677.47 416.70,676.62 417.57,675.09"/>
    </edge>
    <edge id=":1830316033_1" function="internal">
        <lane id=":1830316033_1_0" index="0" speed="13.89" length="8.00" width="4.00" shape="412.43,677.18 419.70,680.52"/>
    </edge>
    <edge id=":1830316036_0" function="internal">
        <lane id=":1830316036_0_0" index="0" speed="5.62" length="6.38" width="4.00" shape="414.15,640.83 412.45,640.41 411.04,640.65 409.92,641.54 409.09,643.10"/>
    </edge>
    <edge id=":1830316036_1" function="internal">
        <lane id=":1830316036_1_0" index="0" speed="13.89" length="7.99" width="4.00" shape="414.15,640.83 406.82,637.66"/>
    </edge>
    <edge id=":1830316037_0" function="internal">
        <lane id=":1830316037_0_0" index="0" speed="5.70" length="6.45" width="4.00" shape="408.35,656.93 406.64,656.49 405.20,656.69 404.03,657.56 403.13,659.08"/>
    </edge>
    <edge id=":1830316037_1" function="internal">
        <lane id=":1830316037_1_0" index="0" speed="13.89" length="8.00" width="4.00" shape="406.02,651.62 403.13,659.08"/>
    </edge>
    <edge id=":1830316052_0" function="internal">
        <lane id=":1830316052_0_0" index="0" speed="13.89" length="8.00" width="4.00" shape="170.99,426.28 167.32,433.39"/>
    </edge>
    <edge id=":1830316052_1" function="internal">
        <lane id=":1830316052_1_0" index="0" speed="4.54" length="1.00" width="4.00" shape="165.14,430.41 166.14,430.39"/>
    </edge>
    <edge id=":1830316052_2" function="internal">
        <lane id=":1830316052_2_0" index="0" speed="4.54" length="4.28" width="4.00" shape="166.14,430.39 166.76,430.37 167.66,430.86 167.85,431.86 167.32,433.39"/>
    </edge>
    <edge id=":4905412367_0" function="internal">
        <lane id=":4905412367_0_0" index="0" speed="13.89" length="8.10" width="4.00" shape="95.54,707.71 97.36,709.17 98.87,709.81 100.53,710.19 102.85,710.88"/>
    </edge>
    <edge id=":4905412367_1" function="internal">
        <lane id=":4905412367_1_0" index="0" speed="9.40" length="8.04" width="4.00" shape="95.54,707.71 97.31,709.59 98.58,711.33 99.34,712.95 99.61,714.44"/>
    </edge>
    <edge id=":4905412370_0" function="internal">
        <lane id=":4905412370_0_0" index="0" speed="8.09" length="5.18" width="4.00" shape="94.89,730.04 94.09,731.25 93.92,732.27 94.06,733.40 94.20,734.95"/>
    </edge>
    <edge id=":4905412370_1" function="internal">
        <lane id=":4905412370_1_0" index="0" speed="13.10" length="5.19" width="4.00" shape="94.89,730.04 93.82,731.10 92.92,731.64 91.90,732.01 90.46,732.57"/>
    </edge>
    <edge id=":4905412371_0" function="internal">
        <lane id=":4905412371_0_0" index="0" speed="9.92" length="5.04" width="4.00" shape="81.53,737.85 80.86,736.50 80.42,735.51 79.81,734.71 78.61,733.91"/>
    </edge>
    <edge id=":4905412371_1" function="internal">
        <lane id=":4905412371_1_0" index="0" speed="11.07" length="5.04" width="4.00" shape="83.52,734.32 82.02,734.43 80.96,734.56 79.95,734.46 78.61,733.91"/>
    </edge>
    <edge id=":4905412376_0" function="internal">
        <lane id=":4905412376_0_0" index="0" speed="10.14" length="5.11" width="4.00" shape="71.95,705.49 72.58,704.16 72.72,703.15 72.62,702.06 72.52,700.54"/>
    </edge>
    <edge id=":4905412376_1" function="internal">
        <lane id=":4905412376_1_0" index="0" speed="8.82" length="5.11" width="4.00" shape="71.95,705.49 72.83,704.35 73.71,703.82 74.78,703.53 76.24,703.06"/>
    </edge>
    <edge id=":4905412378_0" function="internal">
        <lane id=":4905412378_0_0" index="0" speed="10.15" length="5.02" width="4.00" shape="86.09,698.76 86.75,700.11 87.18,701.09 87.78,701.90 88.96,702.72"/>
    </edge>
    <edge id=":4905412378_1" function="internal">
        <lane id=":4905412378_1_0" index="0" speed="11.26" length="5.02" width="4.00" shape="84.07,702.15 85.57,702.09 86.63,702.01 87.63,702.14 88.96,702.72"/>
    </edge>
    <edge id=":4905412381_0" function="internal">
        <lane id=":4905412381_0_0" index="0" speed="13.89" length="11.05" width="4.00" shape="131.09,716.33 127.99,716.33 125.68,716.84 123.38,717.64 120.35,718.52"/>
    </edge>
    <edge id=":4905412381_1" function="internal">
        <lane id=":4905412381_1_0" index="0" speed="5.44" length="2.36" width="4.00" shape="120.26,714.40 122.54,714.99"/>
    </edge>
    <edge id=":4905412381_2" function="internal">
        <lane id=":4905412381_2_0" index="0" speed="5.44" length="8.45" width="4.00" shape="122.54,714.99 123.95,715.35 125.19,716.36 123.99,717.41 120.35,718.52"/>
    </edge>
    <edge id=":4905412387_0" function="internal">
        <lane id=":4905412387_0_0" index="0" speed="13.89" length="7.99" width="4.00" shape="103.41,724.16 101.21,725.06 99.63,725.63 98.24,726.45 96.59,728.08"/>
    </edge>
    <edge id=":4905412387_1" function="internal">
        <lane id=":4905412387_1_0" index="0" speed="10.18" length="8.25" width="4.00" shape="99.67,720.76 99.57,723.16 99.12,724.79 98.17,726.23 96.59,728.08"/>
    </edge>
    <edge id=":4905412388_0" function="internal">
        <lane id=":4905412388_0_0" index="0" speed="13.89" length="14.01" width="4.00" shape="95.71,767.56 94.60,764.16 93.28,761.01 91.85,757.91 90.38,754.63"/>
    </edge>
    <edge id=":4905412388_1" function="internal">
        <lane id=":4905412388_1_0" index="0" speed="4.45" length="2.32" width="4.00" shape="94.76,753.62 94.04,755.51 93.82,755.70"/>
    </edge>
    <edge id=":4905412388_2" function="internal">
        <lane id=":4905412388_2_0" index="0" speed="4.45" length="4.24" width="4.00" shape="93.82,755.70 93.08,756.31 91.85,756.02 90.38,754.63"/>
    </edge>
    <edge id=":4905412396_0" function="internal">
        <lane id=":4905412396_0_0" index="0" speed="13.89" length="0.54" width="4.00" shape="115.56,562.63 115.49,562.77 115.43,562.86 115.37,562.95 115.26,563.07"/>
    </edge>
    <edge id=":4905412397_0" function="internal">
        <lane id=":4905412397_0_0" index="0" speed="5.90" length="6.58" width="4.00" shape="57.51,590.98 55.93,591.81 54.95,592.95 54.57,594.41 54.80,596.18"/>
    </edge>
    <edge id=":4905412397_1" function="internal">
        <lane id=":4905412397_1_0" index="0" speed="13.89" length="7.99" width="4.00" shape="52.71,588.47 54.80,596.18"/>
    </edge>
    <edge id=":4905412400_0" function="internal">
        <lane id=":4905412400_0_0" index="0" speed="13.89" length="8.00" width="4.00" shape="48.10,598.30 45.98,590.59"/>
    </edge>
    <edge id=":4905412401_0" function="internal">
        <lane id=":4905412401_0_0" index="0" speed="13.89" length="8.00" width="4.00" shape="37.99,561.46 35.82,553.76"/>
    </edge>
    <edge id=":4905412402_0" function="internal">
        <lane id=":4905412402_0_0" index="0" speed="13.89" length="8.00" width="4.00" shape="42.91,552.02 45.06,559.73"/>
    </edge>
    <edge id=":4905412404_0" function="internal">
        <lane id=":4905412404_0_0" index="0" speed="9.78" length="5.05" width="4.00" shape="7.13,447.47 7.61,446.03 7.99,445.02 8.11,444.01 7.81,442.60"/>
    </edge>
    <edge id=":4905412404_1" function="internal">
        <lane id=":4905412404_1_0" index="0" speed="4.59" length="5.35" width="4.00" shape="7.13,447.47 7.74,445.96 8.56,445.30 9.59,445.50 10.83,446.55"/>
    </edge>
    <edge id=":4905431608_0" function="internal">
        <lane id=":4905431608_0_0" index="0" speed="13.89" length="0.30" width="4.00" shape="67.67,457.08 67.77,457.36"/>
    </edge>
    <edge id=":4905431609_0" function="internal">
        <lane id=":4905431609_0_0" index="0" speed="4.38" length="2.97" width="4.00" shape="53.58,415.04 52.93,415.50 52.55,416.07 52.46,416.75 52.64,417.53"/>
    </edge>
    <edge id=":4905432322_0" function="internal">
        <lane id=":4905432322_0_0" index="0" speed="13.89" length="7.99" width="4.00" shape="86.80,465.39 88.99,464.48 90.47,463.81 91.92,463.08 94.01,461.95"/>
    </edge>
    <edge id=":4905432322_1" function="internal">
        <lane id=":4905432322_1_0" index="0" speed="5.74" length="6.47" width="4.00" shape="86.80,465.39 88.51,464.95 89.96,465.16 91.14,466.02 92.06,467.54"/>
    </edge>
    <edge id=":4905432327_0" function="internal">
        <lane id=":4905432327_0_0" index="0" speed="13.89" length="8.30" width="4.00" shape="122.72,547.16 121.90,549.48 121.21,551.01 120.42,552.51 119.32,554.72"/>
    </edge>
    <edge id=":4905432327_1" function="internal">
        <lane id=":4905432327_1_0" index="0" speed="5.18" length="2.74" width="4.00" shape="115.93,551.24 118.54,550.39"/>
    </edge>
    <edge id=":4905432327_2" function="internal">
        <lane id=":4905432327_2_0" index="0" speed="5.18" length="5.67" width="4.00" shape="118.54,550.39 119.97,550.69 120.23,552.13 119.32,554.72"/>
    </edge>
    <edge id=":4905432328_0" function="internal">
        <lane id=":4905432328_0_0" index="0" speed="13.89" length="8.00" width="4.00" shape="55.79,425.67 58.63,433.14"/>
    </edge>
    <edge id=":4905432328_1" function="internal">
        <lane id=":4905432328_1_0" index="0" speed="5.79" length="6.51" width="4.00" shape="55.79,425.67 56.19,427.40 55.95,428.86 55.06,430.05 53.54,430.96"/>
    </edge>
    <edge id=":4909146967_0" function="internal">
        <lane id=":4909146967_0_0" index="0" speed="13.89" length="8.00" width="4.00" shape="417.34,830.03 424.68,833.20"/>
    </edge>
    <edge id=":4909146972_0" function="internal">
        <lane id=":4909146972_0_0" index="0" speed="5.90" length="6.57" width="4.00" shape="311.57,917.10 310.83,918.72 310.76,920.22 311.36,921.60 312.63,922.85"/>
    </edge>
    <edge id=":4909146972_1" function="internal">
        <lane id=":4909146972_1_0" index="0" speed="13.89" length="7.99" width="4.00" shape="311.57,917.10 310.29,919.09 309.35,920.42 308.31,921.67 306.72,923.42"/>
    </edge>
    <edge id=":4909146975_0" function="internal">
        <lane id=":4909146975_0_0" index="0" speed="5.99" length="6.63" width="4.00" shape="299.80,936.86 298.23,936.01 296.72,935.82 295.27,936.30 293.89,937.44"/>
    </edge>
    <edge id=":4909146975_1" function="internal">
        <lane id=":4909146975_1_0" index="0" speed="13.89" length="8.00" width="4.00" shape="299.29,931.54 293.89,937.44"/>
    </edge>
    <edge id=":4912238313_0" function="internal">
        <lane id=":4912238313_0_0" index="0" speed="5.59" length="6.36" width="4.00" shape="163.61,896.05 162.26,894.93 160.89,894.54 159.50,894.87 158.10,895.93"/>
    </edge>
    <edge id=":4912238313_1" function="internal">
        <lane id=":4912238313_1_0" index="0" speed="13.89" length="8.01" width="4.00" shape="163.61,896.05 158.22,890.13"/>
    </edge>
    <edge id=":4912238317_0" function="internal">
        <lane id=":4912238317_0_0" index="0" speed="10.22" length="7.79" width="4.00" shape="122.89,875.70 120.61,875.92 119.06,876.35 117.71,877.21 116.02,878.75"/>
    </edge>
    <edge id=":4912238317_1" function="internal">
        <lane id=":4912238317_1_0" index="0" speed="7.00" length="7.11" width="4.00" shape="122.89,875.70 121.03,875.60 119.44,875.02 118.11,873.97 117.06,872.43"/>
    </edge>
    <edge id=":4912238318_0" function="internal">
        <lane id=":4912238318_0_0" index="0" speed="5.92" length="6.59" width="4.00" shape="52.01,940.30 50.90,941.71 50.48,943.15 50.73,944.64 51.66,946.17"/>
    </edge>
    <edge id=":4912238318_1" function="internal">
        <lane id=":4912238318_1_0" index="0" speed="13.89" length="8.00" width="4.00" shape="46.52,940.04 51.66,946.17"/>
    </edge>
    <edge id=":4912238319_0" function="internal">
        <lane id=":4912238319_0_0" index="0" speed="13.89" length="7.99" width="4.00" shape="141.31,871.54 139.72,869.78 138.67,868.54 137.69,867.25 136.32,865.31"/>
    </edge>
    <edge id=":4912238319_1" function="internal">
        <lane id=":4912238319_1_0" index="0" speed="6.16" length="6.74" width="4.00" shape="135.78,871.40 136.88,869.96 137.34,868.47 137.15,866.92 136.32,865.31"/>
    </edge>
    <edge id=":4912238320_0" function="internal">
        <lane id=":4912238320_0_0" index="0" speed="5.19" length="8.44" width="4.00" shape="127.15,879.98 128.89,877.85 129.13,876.40 127.88,875.63 125.13,875.53"/>
    </edge>
    <edge id=":4912238320_1" function="internal">
        <lane id=":4912238320_1_0" index="0" speed="13.89" length="11.00" width="4.00" shape="127.15,879.98 134.95,872.22"/>
    </edge>
    <edge id=":4912238320_2" function="internal">
        <lane id=":4912238320_2_0" index="0" speed="5.55" length="8.06" width="4.00" shape="127.15,879.98 129.41,878.07 131.23,877.27 132.60,877.58 133.52,879.02"/>
    </edge>
    <edge id=":4912238822_0" function="internal">
        <lane id=":4912238822_0_0" index="0" speed="5.13" length="5.96" width="4.00" shape="112.14,862.97 111.14,861.59 110.02,860.99 108.75,861.18 107.35,862.15"/>
    </edge>
    <edge id=":4912238822_1" function="internal">
        <lane id=":4912238822_1_0" index="0" speed="13.89" length="8.00" width="4.00" shape="112.14,862.97 108.58,855.81"/>
    </edge>
    <edge id=":4912238823_0" function="internal">
        <lane id=":4912238823_0_0" index="0" speed="5.81" length="6.52" width="4.00" shape="39.19,925.33 38.07,926.71 37.64,928.13 37.90,929.59 38.86,931.09"/>
    </edge>
    <edge id=":4912238823_1" function="internal">
        <lane id=":4912238823_1_0" index="0" speed="13.89" length="8.00" width="4.00" shape="33.45,925.20 38.86,931.09"/>
    </edge>
    <edge id=":4912238826_0" function="internal">
        <lane id=":4912238826_0_0" index="0" speed="5.48" length="6.28" width="4.00" shape="53.16,948.02 54.44,949.19 55.76,949.63 57.13,949.33 58.53,948.28"/>
    </edge>
    <edge id=":4912238826_1" function="internal">
        <lane id=":4912238826_1_0" index="0" speed="13.89" length="8.00" width="4.00" shape="52.84,953.91 58.53,948.28"/>
    </edge>
    <edge id=":4912676357_0" function="internal">
        <lane id=":4912676357_0_0" index="0" speed="5.59" length="6.36" width="4.00" shape="426.35,683.71 428.03,684.23 429.44,684.08 430.60,683.25 431.50,681.74"/>
    </edge>
    <edge id=":4912676357_1" function="internal">
        <lane id=":4912676357_1_0" index="0" speed="13.89" length="8.00" width="4.00" shape="428.41,689.11 431.50,681.74"/>
    </edge>
    <edge id=":4916794362_0" function="internal">
        <lane id=":4916794362_0_0" index="0" speed="8.81" length="5.11" width="4.00" shape="712.91,23.05 711.76,23.92 711.22,24.79 710.91,25.86 710.43,27.31"/>
    </edge>
    <edge id=":4916794362_1" function="internal">
        <lane id=":4916794362_1_0" index="0" speed="13.89" length="5.12" width="4.00" shape="712.91,23.05 711.58,23.75 710.59,24.08 709.56,24.28 708.07,24.61"/>
    </edge>
    <edge id=":4916794364_0" function="internal">
        <lane id=":4916794364_0_0" index="0" speed="13.89" length="5.31" width="4.00" shape="702.24,24.02 700.80,23.36 699.79,22.94 698.86,22.39 697.68,21.38"/>
    </edge>
    <edge id=":4916794364_1" function="internal">
        <lane id=":4916794364_1_0" index="0" speed="7.02" length="5.06" width="4.00" shape="698.33,26.29 698.41,24.49 698.33,23.08 698.09,22.04 697.68,21.38"/>
    </edge>
    <edge id=":4916839175_0" function="internal">
        <lane id=":4916839175_0_0" index="0" speed="4.59" length="5.34" width="4.00" shape="633.07,196.49 633.48,194.92 633.21,193.91 632.27,193.46 630.65,193.57"/>
    </edge>
    <edge id=":4916839175_1" function="internal">
        <lane id=":4916839175_1_0" index="0" speed="13.89" length="8.00" width="4.00" shape="633.07,196.49 636.07,189.07"/>
    </edge>
    <edge id=":4916839175_2" function="internal">
        <lane id=":4916839175_2_0" index="0" speed="5.74" length="6.49" width="4.00" shape="633.07,196.49 633.96,194.95 635.13,194.06 636.57,193.82 638.29,194.23"/>
    </edge>
    <edge id=":4916839176_0" function="internal">
        <lane id=":4916839176_0_0" index="0" speed="13.89" length="8.00" width="4.00" shape="644.73,192.44 641.70,199.85"/>
    </edge>
    <edge id=":4916839176_1" function="internal">
        <lane id=":4916839176_1_0" index="0" speed="5.67" length="1.89" width="4.00" shape="639.49,194.70 641.02,195.57 641.10,195.67"/>
    </edge>
    <edge id=":4916839176_2" function="internal">
        <lane id=":4916839176_2_0" index="0" speed="5.67" length="4.51" width="4.00" shape="641.10,195.67 641.90,196.72 642.13,198.14 641.70,199.85"/>
    </edge>
    <edge id=":4916901391_0" function="internal">
        <lane id=":4916901391_0_0" index="0" speed="6.02" length="6.66" width="4.00" shape="473.65,600.35 473.21,602.09 473.41,603.61 474.22,604.90 475.67,605.97"/>
    </edge>
    <edge id=":4916901391_1" function="internal">
        <lane id=":4916901391_1_0" index="0" speed="13.89" length="8.00" width="4.00" shape="473.65,600.35 470.67,607.77"/>
    </edge>
    <edge id=":4916901393_0" function="internal">
        <lane id=":4916901393_0_0" index="0" speed="5.20" length="5.87" width="4.00" shape="585.20,629.19 587.01,630.34 588.46,630.83 589.55,630.66 590.28,629.84"/>
    </edge>
    <edge id=":4916901393_1" function="internal">
        <lane id=":4916901393_1_0" index="0" speed="7.57" length="8.77" width="4.00" shape="585.20,629.19 586.52,630.59 587.26,632.40 587.40,634.62 586.96,637.25"/>
    </edge>
    <edge id=":4916901394_0" function="internal">
        <lane id=":4916901394_0_0" index="0" speed="4.37" length="3.18" width="4.00" shape="650.68,503.40 650.94,502.57 650.88,501.85 650.49,501.24 649.77,500.75"/>
    </edge>
    <edge id=":4916901395_0" function="internal">
        <lane id=":4916901395_0_0" index="0" speed="12.15" length="7.87" width="4.00" shape="564.32,647.32 562.81,645.56 561.93,644.21 561.42,642.67 561.00,640.40"/>
    </edge>
    <edge id=":4916901395_1" function="internal">
        <lane id=":4916901395_1_0" index="0" speed="6.14" length="6.73" width="4.00" shape="557.86,645.62 559.48,644.82 560.54,643.68 561.04,642.21 561.00,640.40"/>
    </edge>
    <edge id=":4916901416_0" function="internal">
        <lane id=":4916901416_0_0" index="0" speed="4.37" length="3.18" width="4.00" shape="672.20,430.17 672.92,430.66 673.31,431.26 673.38,431.98 673.12,432.81"/>
    </edge>
    <edge id=":4916901417_0" function="internal">
        <lane id=":4916901417_0_0" index="0" speed="13.89" length="8.00" width="4.00" shape="646.32,499.02 639.17,495.42"/>
    </edge>
    <edge id=":4916901417_1" function="internal">
        <lane id=":4916901417_1_0" index="0" speed="5.65" length="1.91" width="4.00" shape="644.45,493.59 643.48,495.06 643.36,495.15"/>
    </edge>
    <edge id=":4916901417_2" function="internal">
        <lane id=":4916901417_2_0" index="0" speed="5.65" length="4.49" width="4.00" shape="643.36,495.15 642.28,495.86 640.84,495.98 639.17,495.42"/>
    </edge>
    <edge id=":4916901418_0" function="internal">
        <lane id=":4916901418_0_0" index="0" speed="13.89" length="8.00" width="4.00" shape="654.24,421.25 661.41,424.81"/>
    </edge>
    <edge id=":4916901418_1" function="internal">
        <lane id=":4916901418_1_0" index="0" speed="5.76" length="6.49" width="4.00" shape="654.24,421.25 655.70,422.25 656.50,423.49 656.64,424.95 656.12,426.64"/>
    </edge>
    <edge id=":4916901419_0" function="internal">
        <lane id=":4916901419_0_0" index="0" speed="13.89" length="8.00" width="4.00" shape="630.20,490.91 623.05,487.32"/>
    </edge>
    <edge id=":4916901419_1" function="internal">
        <lane id=":4916901419_1_0" index="0" speed="5.65" length="1.90" width="4.00" shape="628.33,485.49 627.36,486.96 627.24,487.04"/>
    </edge>
    <edge id=":4916901419_2" function="internal">
        <lane id=":4916901419_2_0" index="0" speed="5.65" length="4.50" width="4.00" shape="627.24,487.04 626.16,487.76 624.72,487.88 623.05,487.32"/>
    </edge>
    <edge id=":6558001638_0" function="internal">
        <lane id=":6558001638_0_0" index="0" speed="5.71" length="6.40" width="4.00" shape="306.03,401.90 306.50,400.23 306.32,398.80 305.48,397.61 303.98,396.66"/>
    </edge>
    <edge id=":6558001638_1" function="internal">
        <lane id=":6558001638_1_0" index="0" speed="13.89" length="7.99" width="4.00" shape="306.03,401.90 309.18,394.55"/>
    </edge>
    <edge id=":957292453_0" function="internal">
        <lane id=":957292453_0_0" index="0" speed="8.97" length="5.10" width="4.00" shape="499.76,547.17 498.37,547.58 497.56,548.20 496.89,549.08 495.91,550.26"/>
    </edge>
    <edge id=":957292453_1" function="internal">
        <lane id=":957292453_1_0" index="0" speed="13.89" length="5.10" width="4.00" shape="499.76,547.17 498.27,547.34 497.24,547.25 496.21,547.01 494.73,546.69"/>
    </edge>
    <edge id=":957292458_0" function="internal">
        <lane id=":957292458_0_0" index="0" speed="9.80" length="5.04" width="4.00" shape="518.35,504.00 518.09,505.48 517.85,506.54 517.87,507.55 518.37,508.90"/>
    </edge>
    <edge id=":957292458_1" function="internal">
        <lane id=":957292458_1_0" index="0" speed="13.15" length="5.04" width="4.00" shape="514.81,505.44 516.03,506.33 516.90,506.93 517.62,507.64 518.37,508.90"/>
    </edge>
    <edge id=":957292462_0" function="internal">
        <lane id=":957292462_0_0" index="0" speed="7.04" length="5.05" width="4.00" shape="478.41,524.10 478.07,523.42 477.32,522.67 476.16,521.85 474.58,520.97"/>
    </edge>
    <edge id=":957292462_1" function="internal">
        <lane id=":957292462_1_0" index="0" speed="13.89" length="5.33" width="4.00" shape="478.41,524.10 478.18,522.56 478.21,521.48 478.41,520.39 478.68,518.83"/>
    </edge>
    <edge id=":957292472_0" function="internal">
        <lane id=":957292472_0_0" index="0" speed="10.00" length="8.57" width="4.00" shape="489.81,545.86 487.61,545.08 486.49,543.80 485.68,542.03 484.36,539.80"/>
    </edge>
    <edge id=":957292472_1" function="internal">
        <lane id=":957292472_1_0" index="0" speed="10.54" length="8.27" width="4.00" shape="484.68,547.71 485.05,545.25 485.49,543.46 485.44,541.82 484.36,539.80"/>
    </edge>
    <edge id=":957292478_0" function="internal">
        <lane id=":957292478_0_0" index="0" speed="13.89" length="0.73" width="4.00" shape="496.58,501.31 496.78,501.23 496.92,501.18 497.07,501.16 497.28,501.14"/>
    </edge>
    <edge id=":957292482_0" function="internal">
        <lane id=":957292482_0_0" index="0" speed="12.11" length="8.15" width="4.00" shape="500.12,500.99 502.39,500.58 503.76,499.69 504.99,498.41 506.82,496.80"/>
    </edge>
    <edge id=":957292482_1" function="internal">
        <lane id=":957292482_1_0" index="0" speed="13.89" length="8.06" width="4.00" shape="500.12,500.99 502.51,500.95 504.14,501.10 505.76,501.38 508.13,501.71"/>
    </edge>
    <edge id=":957292488_0" function="internal">
        <lane id=":957292488_0_0" index="0" speed="13.89" length="0.27" width="4.00" shape="705.97,38.18 705.87,38.43"/>
    </edge>
    <edge id=":974190757_0" function="internal">
        <lane id=":974190757_0_0" index="0" speed="5.68" length="6.42" width="4.00" shape="341.91,653.79 342.34,652.08 342.12,650.65 341.24,649.49 339.71,648.62"/>
    </edge>
    <edge id=":974190757_1" function="internal">
        <lane id=":974190757_1_0" index="0" speed="13.89" length="7.99" width="4.00" shape="341.91,653.79 344.86,646.36"/>
    </edge>
    <edge id=":974190759_0" function="internal">
        <lane id=":974190759_0_0" index="0" speed="5.91" length="6.57" width="4.00" shape="461.56,346.09 463.30,346.47 464.78,346.23 466.01,345.36 466.99,343.87"/>
    </edge>
    <edge id=":974190759_1" function="internal">
        <lane id=":974190759_1_0" index="0" speed="13.89" length="8.00" width="4.00" shape="463.84,351.22 466.99,343.87"/>
    </edge>
    <edge id=":974190762_0" function="internal">
        <lane id=":974190762_0_0" index="0" speed="5.75" length="6.48" width="4.00" shape="356.63,331.08 358.35,331.48 359.80,331.23 360.97,330.34 361.85,328.81"/>
    </edge>
    <edge id=":974190762_1" function="internal">
        <lane id=":974190762_1_0" index="0" speed="13.89" length="8.00" width="4.00" shape="356.63,331.08 364.07,334.00"/>
    </edge>
    <edge id=":974190769_0" function="internal">
        <lane id=":974190769_0_0" index="0" speed="13.89" length="8.00" width="4.00" shape="298.48,780.79 291.10,777.71"/>
    </edge>
    <edge id=":974190769_1" function="internal">
        <lane id=":974190769_1_0" index="0" speed="6.30" length="6.81" width="4.00" shape="298.48,780.79 296.91,779.88 295.88,778.67 295.41,777.16 295.48,775.34"/>
    </edge>
    <edge id=":974190777_0" function="internal">
        <lane id=":974190777_0_0" index="0" speed="6.75" length="7.02" width="4.00" shape="234.45,979.48 235.11,977.75 235.18,976.10 234.69,974.51 233.62,972.99"/>
    </edge>
    <edge id=":974190777_1" function="internal">
        <lane id=":974190777_1_0" index="0" speed="13.76" length="7.74" width="4.00" shape="234.45,979.48 235.51,977.44 236.32,976.05 237.38,974.90 239.21,973.56"/>
    </edge>
    <edge id=":974190782_0" function="internal">