<?xml version='1.0' encoding='UTF-8'?>
<nodes>
  <node id="-101866" x="-57.709634" y="-68.01749" shape="-58.151305,-72.467763 -54.414418,-71.040990 -53.267032,-68.530604 -54.633581,-64.771277 -57.267971,-63.567217 -61.004855,-64.993995 -58.151305,-72.467763 -58.151305,-72.467763"/>
  <node id="-101867" x="-53.679813" y="-78.57207" shape="-54.121492,-83.022342 -50.384603,-81.595576 -49.246242,-79.158116 -50.550834,-75.376841 -53.238142,-74.121797 -56.975029,-75.548570 -54.121492,-83.022342 -54.121492,-83.022342"/>
  <node id="1148198157" x="231.400826" y="-448.300048"/>
  <node id="1148198215" x="-77.726146" y="240.253248" shape="-76.817250,235.874446 -73.677767,238.353083 -73.533090,238.698166 -73.966247,242.674643 -78.073032,242.462246 -79.295888,239.013929 -79.285213,238.650341 -76.817250,235.874446 -76.817250,235.874446"/>
  <node id="1148198365" x="222.481766" y="-452.020015"/>
  <node id="1148198856" x="3.455805" y="99.939282" shape="3.081454,95.482842 6.796347,96.965937 5.313251,100.680830 5.296186,100.722223 3.730305,104.402986 0.049542,102.837104 -1.004027,100.270798 0.514693,96.570326 3.081454,95.482842 3.081454,95.482842"/>
  <node id="1830315991" x="126.215401" y="-192.524707" shape="125.896538,-196.985461 129.592686,-195.456250 126.541728,-188.064493 122.843026,-189.587517 121.776132,-191.983515 123.118886,-195.751407 125.896538,-196.985461 125.896538,-196.985461"/>
  <node id="1830316027" x="5.456594" y="-44.739988" shape="2.400356,-48.004863 9.890121,-45.326364 8.585811,-41.544992 5.887649,-40.288675 2.154176,-41.724356 1.010951,-44.253923 2.400356,-48.004863 2.400356,-48.004863"/>
  <node id="1830316028" x="-2.306224" y="-24.552866" shape="-2.737279,-29.004179 0.996194,-27.568498 2.142171,-25.013067 0.730974,-21.270271 -3.012266,-22.681635 -6.754728,-24.093720 -5.342643,-27.836181 -2.737279,-29.004179 -2.737279,-29.004179"/>
  <node id="1830316033" x="-31.501274" y="121.81047" shape="-31.878591,117.354280 -28.162712,118.834902 -27.029878,121.729138 -28.753371,125.338788 -35.968802,122.013441 -34.344168,118.358231 -31.878591,117.354280 -31.878591,117.354280"/>
  <node id="1830316036" x="-37.145393" y="82.34036" shape="-39.943770,78.851938 -32.687856,81.979295 -34.182019,85.689750 -36.619247,86.781438 -40.382567,85.425923 -41.615157,82.486009 -39.943770,78.851938 -39.943770,78.851938"/>
  <node id="1830316037" x="-42.926358" y="98.390084" shape="-43.452504,93.949006 -39.689184,95.304521 -38.463985,98.094744 -40.012662,101.782778 -42.616114,102.851446 -46.309301,101.315096 -43.452504,93.949006 -43.452504,93.949006"/>
  <node id="1830316052" x="-278.495279" y="-127.185614" shape="-278.371020,-131.656023 -274.844396,-129.768452 -278.466812,-122.713569 -282.055835,-124.479613 -282.148288,-124.605784 -282.750949,-128.560124 -278.371020,-131.656023 -278.371020,-131.656023"/>
  <node id="4905412367" x="-351.332413" y="151.404303" shape="-350.671305,149.268200 -344.077262,152.006620 -345.976653,157.430680 -349.976507,157.464780 -353.437960,152.157078 -350.671305,149.268200 -350.671305,149.268200"/>
  <node id="4905412370" x="-353.477526" y="173.950733" shape="-354.335006,171.885611 -351.478015,173.906495 -351.310940,174.503822 -351.389540,177.905517 -355.388561,177.993992 -356.310142,177.411411 -357.945637,173.761047 -354.335006,171.885611 -354.335006,171.885611"/>
  <node id="4905412371" x="-368.066717" y="177.395873" shape="-368.024053,175.160212 -364.099569,175.331476 -364.034911,179.330953 -364.326629,179.847758 -367.784173,181.859075 -369.880844,178.703138 -369.795489,178.401531 -368.024053,175.160212 -368.024053,175.160212"/>
  <node id="4905412376" x="-375.061899" y="147.534965" shape="-373.072996,143.529436 -372.076232,144.205432 -370.606872,147.925779 -373.863664,149.422883 -374.327219,149.395138 -377.061891,147.540509 -377.291174,147.360802 -377.072980,143.540525 -373.072996,143.529436 -373.072996,143.529436"/>
  <node id="4905412378" x="-359.521664" y="145.233408" shape="-359.759669,140.767610 -357.670504,143.979132 -357.782946,144.245046 -359.628939,147.466901 -363.559318,147.156258 -363.482536,143.156995 -363.237105,142.744333 -359.759669,140.767610 -359.759669,140.767610"/>
  <node id="4905412381" x="-317.500191" y="159.258344" shape="-326.959029,155.446470 -316.331673,157.351890 -316.676139,161.337031 -326.786917,163.472217 -327.693274,159.576255 -327.697531,159.377706 -326.959029,155.446470 -326.959029,155.446470"/>
  <node id="4905412387" x="-350.347904" y="170.33598" shape="-349.836840,163.073831 -346.077375,164.440000 -345.030936,165.363069 -343.206298,168.922661 -349.490424,172.401102 -352.514490,169.782891 -349.836840,163.073831 -349.836840,163.073831"/>
  <node id="4905412388" x="-352.146831" y="209.604959" shape="-350.834430,196.517652 -349.954281,210.043964 -353.813565,211.095596 -359.055711,198.412668 -355.372068,196.853573 -354.828876,196.728366 -350.834430,196.517652 -350.834430,196.517652"/>
  <node id="4905412396" x="-332.155304" y="5.884359"/>
  <node id="4905412397" x="-393.846904" y="35.335629" shape="-392.943548,30.955681 -390.749221,32.110050 -389.407831,35.878429 -390.864274,38.667883 -394.723130,39.721086 -397.058964,38.447328 -398.263499,34.633001 -396.808849,31.984975 -392.943548,30.955681 -392.943548,30.955681"/>
  <node id="4905412400" x="-400.552776" y="37.453293" shape="-399.681988,33.066753 -397.340716,34.341594 -396.136181,38.155921 -397.564819,40.780771 -401.421985,41.840146 -402.481549,37.982286 -403.539535,34.124739 -399.681988,33.066753 -399.681988,33.066753"/>
  <node id="4905412401" x="-410.657061" y="0.611823" shape="-409.850411,-3.786963 -407.247445,-2.282053 -406.296191,1.603191 -407.670302,3.940377 -411.527849,4.998363 -413.692100,-2.672768 -409.850411,-3.786963 -409.850411,-3.786963"/>
  <node id="4905412402" x="-403.556479" y="-1.126667" shape="-402.756059,-5.526591 -401.636426,-1.686484 -401.623828,-1.641314 -400.594534,2.223987 -404.459835,3.253281 -406.966095,1.767209 -407.917349,-2.118035 -406.596166,-4.406957 -402.756059,-5.526591 -402.756059,-5.526591"/>
  <node id="4905412404" x="-439.451845" y="-113.395373" shape="-437.864073,-114.969851 -435.280242,-111.783625 -438.238282,-109.091042 -438.520266,-109.021340 -442.392124,-110.025690 -441.664090,-113.720904 -441.387774,-113.897548 -437.864073,-114.969851 -437.864073,-114.969851"/>
  <node id="4905431608" x="-379.871932" y="-99.768402"/>
  <node id="4905431609" x="-395.590472" y="-141.126435"/>
  <node id="4905432322" x="-357.097705" y="-93.131215" shape="-354.537149,-96.797760 -352.628135,-93.282697 -353.690129,-90.234937 -357.370182,-88.667387 -360.028329,-89.753132 -361.558546,-93.448865 -354.537149,-96.797760 -354.537149,-96.797760"/>
  <node id="4905432327" x="-325.273321" y="-8.600534" shape="-326.087213,-10.427438 -323.063899,-8.944708 -323.368114,-7.992104 -323.466846,-7.742252 -326.470835,-1.419590 -330.083784,-3.136154 -330.853594,-3.925006 -332.481378,-7.578815 -326.874313,-10.161567 -326.087213,-10.427438 -326.087213,-10.427438"/>
  <node id="4905432328" x="-390.366362" y="-127.587187" shape="-389.940370,-132.038988 -388.500443,-128.307151 -388.495087,-128.293112 -387.083238,-124.550561 -390.825788,-123.138712 -393.273121,-124.188548 -394.829329,-127.873411 -393.672208,-130.599061 -389.940370,-132.038988 -389.940370,-132.038988"/>
  <node id="4909146967" x="-26.583043" y="274.631966" shape="-29.449950,271.199642 -22.118272,274.375405 -23.698932,278.049846 -26.705156,279.102434 -30.232686,277.216556 -31.049046,274.866097 -29.449950,271.199642 -29.449950,271.199642"/>
  <node id="4909146972" x="-138.170373" y="363.481142" shape="-137.715200,359.032230 -134.338140,361.175933 -133.766161,364.257621 -136.149029,367.470399 -139.396433,367.781930 -142.346639,365.080767 -137.715200,359.032230 -137.715200,359.032230"/>
  <node id="4909146975" x="-151.005463" y="377.49961" shape="-149.779403,373.198822 -146.829197,375.899985 -146.598673,378.261318 -148.970756,381.482067 -152.231877,381.800297 -155.181861,379.098891 -149.779403,373.198822 -149.779403,373.198822"/>
  <node id="4912238313" x="-286.674973" y="336.094414" shape="-287.887174,331.789699 -282.503591,337.706732 -285.461998,340.398911 -288.068099,340.344026 -290.910538,337.529680 -290.846065,334.481346 -287.887174,331.789699 -287.887174,331.789699"/>
  <node id="4912238317" x="-328.690965" y="318.985179" shape="-328.763768,314.513636 -324.841429,316.708982 -324.560286,320.699089 -330.187867,323.199355 -332.960448,320.316163 -332.311882,316.360496 -328.763768,314.513636 -328.763768,314.513636"/>
  <node id="4912238318" x="-398.465479" y="386.082828" shape="-399.548951,381.743924 -396.968577,381.868652 -394.195996,384.751844 -394.385009,387.913064 -397.481386,390.445346 -402.586685,384.346263 -399.548951,381.743924 -399.548951,381.743924"/>
  <node id="4912238319" x="-308.970584" y="311.585145" shape="-309.643355,307.163903 -304.799492,313.198213 -307.758383,315.889860 -310.396627,315.823824 -313.217153,312.987519 -312.911240,309.470617 -309.643355,307.163903 -309.643355,307.163903"/>
  <node id="4912238320" x="-315.475654" y="318.054026" shape="-314.049611,313.815347 -311.229085,316.651652 -312.256265,321.158142 -319.026275,324.409582 -321.847984,321.574453 -322.317770,320.541081 -322.598914,316.550973 -314.049611,313.815347 -314.049611,313.815347"/>
  <node id="4912238822" x="-337.305321" y="302.435625" shape="-337.197943,297.964778 -333.684404,305.060308 -337.232518,306.907168 -338.879302,306.621624 -341.598508,303.688039 -340.817572,299.667215 -337.197943,297.964778 -337.197943,297.964778"/>
  <node id="4912238823" x="-411.337237" y="371.057505" shape="-412.718567,366.804044 -409.763256,366.871506 -407.044050,369.805091 -407.216031,372.794070 -410.253765,375.396409 -415.568803,369.610493 -412.718567,366.804044 -412.718567,366.804044"/>
  <node id="4912238824" x="-422.655358" y="359.562791"/>
  <node id="4912238825" x="-343.423042" y="289.428455"/>
  <node id="4912238826" x="-391.897393" y="394.114031" shape="-392.881486,389.751513 -390.473119,389.874757 -387.651409,392.709886 -390.486538,395.531596 -390.494778,395.539749 -393.346214,398.344978 -396.151444,395.493542 -395.977863,392.283795 -392.881486,389.751513 -392.881486,389.751513"/>
  <node id="4912676357" x="-17.62566" y="128.435635" shape="-17.926666,123.973640 -14.236668,125.517634 -15.783585,129.214583 -17.341481,132.898733 -21.025631,131.340837 -22.097056,128.516967 -20.373563,124.907317 -17.926666,123.973640 -17.926666,123.973640"/>
  <node id="4916794362" x="264.354195" y="-533.377987" shape="264.204825,-535.609060 266.204471,-532.618725 266.228676,-532.158839 264.685946,-528.918173 260.985394,-530.436698 260.978331,-530.444808 259.982133,-534.318771 264.204825,-535.609060 264.204825,-535.609060"/>
  <node id="4916794364" x="251.066868" y="-534.683272" shape="251.712602,-536.824073 255.538379,-534.758041 253.809589,-531.150924 252.725731,-530.530180 248.739713,-530.864326 248.966787,-533.915379 249.073859,-534.850345 251.712602,-536.824073 251.712602,-536.824073"/>
  <node id="4916839175" x="186.975018" y="-364.211671" shape="186.620380,-368.669724 190.328677,-367.170213 191.427838,-364.626878 189.978876,-360.898540 187.329922,-359.753640 183.621535,-361.252929 183.447110,-361.463241 182.659529,-365.384939 186.620380,-368.669724 186.620380,-368.669724"/>
  <node id="4916839176" x="195.621117" y="-360.851496" shape="195.284762,-365.310965 198.986879,-363.796262 195.957851,-356.392055 192.255605,-357.906445 191.168297,-360.436289 192.617259,-364.164627 195.284762,-365.310965 195.284762,-365.310965"/>
  <node id="4916901391" x="24.563298" y="47.068727" shape="24.195877,42.611710 27.908459,44.100580 29.032590,47.228200 27.117295,50.739844 24.937649,51.525167 21.222756,50.042072 22.707007,46.324292 24.195877,42.611710 24.195877,42.611710"/>
  <node id="4916901393" x="139.622077" y="79.283847" shape="139.264707,70.934003 144.443688,73.829302 141.303339,80.758078 137.433935,79.744318 136.386671,73.126236 139.264707,70.934003 139.264707,70.934003"/>
  <node id="4916901394" x="203.932083" y="-55.362998"/>
  <node id="4916901395" x="114.057383" y="87.351762" shape="115.381339,83.080095 118.216028,88.996656 115.236655,91.665614 110.905270,90.524172 109.628187,86.733518 111.434423,83.729597 115.381339,83.080095 115.381339,83.080095"/>
  <node id="4916901414" x="165.405209" y="-74.727082"/>
  <node id="4916901415" x="196.428816" y="-140.817347"/>
  <node id="4916901416" x="226.368377" y="-125.953975"/>
  <node id="4916901417" x="195.154956" y="-59.776761" shape="195.052443,-64.247722 198.670217,-62.541348 199.627080,-59.766501 197.830023,-56.192906 190.682831,-59.786781 192.479697,-63.360473 195.052443,-64.247722 195.052443,-64.247722"/>
  <node id="4916901418" x="210.235182" y="-133.961603" shape="207.542063,-137.531912 214.707299,-133.974699 212.928929,-130.391767 210.335822,-129.490600 206.718763,-131.198489 205.763063,-133.949293 207.542063,-137.531912 207.542063,-137.531912"/>
  <node id="4916901419" x="179.034134" y="-67.88237" shape="178.933494,-72.353373 182.550553,-70.645484 183.506259,-67.872350 181.709393,-64.298658 174.562005,-67.890304 176.357204,-71.464833 178.933494,-72.353373 178.933494,-72.353373"/>
  <node id="6558001638" x="-139.941648" y="-158.748919" shape="-140.253201,-163.210190 -136.559563,-161.674924 -138.094829,-157.981286 -138.113115,-157.938693 -139.733566,-154.281627 -143.390633,-155.902078 -144.440700,-158.515001 -142.785442,-162.156446 -140.253201,-163.210190 -140.253201,-163.210190"/>
  <node id="957292453" x="51.077216" y="-9.629363" shape="47.468619,-12.270958 51.716223,-11.772181 52.525182,-8.249728 52.408066,-7.832466 49.765911,-5.353795 46.869979,-8.113066 46.798781,-8.327442 47.468619,-12.270958 47.468619,-12.270958"/>
  <node id="957292458" x="70.318745" y="-49.021886" shape="68.767899,-53.216511 72.743938,-52.779337 72.554796,-49.013190 72.306764,-48.803299 68.970157,-47.238263 65.955456,-50.002555 68.485307,-53.100918 68.767899,-53.216511 68.767899,-53.216511"/>
  <node id="957292462" x="30.54553" y="-34.196872" shape="29.103082,-38.429997 33.066561,-37.890705 32.706492,-33.622206 29.630170,-32.418638 28.789219,-32.812902 26.073702,-34.249357 27.904421,-37.805825 29.103082,-38.429997 29.103082,-38.429997"/>
  <node id="957292472" x="37.456879" y="-16.268993" shape="38.459809,-18.267525 43.797031,-12.690939 40.949734,-9.881508 39.092922,-9.175097 35.098253,-9.381549 35.256295,-15.872218 35.459545,-16.372219 38.459809,-18.267525 38.459809,-18.267525"/>
  <node id="957292478" x="49.333097" y="-55.833289"/>
  <node id="957292482" x="53.585456" y="-56.056669" shape="58.052402,-61.805268 60.415142,-58.577659 60.764467,-57.265721 60.319587,-53.290538 52.691750,-54.006964 52.404086,-57.670474 52.481916,-58.001457 58.052402,-61.805268 58.052402,-61.805268"/>
  <node id="957292488" x="258.324937" y="-518.685056"/>
  <node id="974190757" x="-104.163209" y="93.099997" shape="-104.592538,88.648517 -100.859622,90.085646 -102.296751,93.818561 -102.312665,93.858604 -103.829879,97.559693 -107.530968,96.042478 -108.618803,93.484292 -107.144001,89.766099 -104.592538,88.648517 -104.592538,88.648517"/>
  <node id="974190759" x="17.712451" y="-209.495325" shape="17.587308,-213.965710 21.213673,-212.277670 18.113760,-205.041231 14.389962,-206.501821 13.264450,-209.031339 14.672461,-212.775335 17.587308,-213.965710 17.587308,-213.965710"/>
  <node id="974190762" x="-87.231481" y="-224.46967" shape="-87.590661,-228.927359 -83.880838,-227.431627 -82.773369,-224.843643 -84.259608,-221.130007 -91.682679,-224.037426 -90.247995,-227.771282 -87.590661,-228.927359 -87.590661,-228.927359"/>
  <node id="974190769" x="-152.807382" y="222.286133" shape="-154.082024,217.999492 -150.142855,218.694435 -148.348082,221.947543 -149.860930,225.650419 -153.563806,224.137571 -153.589596,224.126823 -157.270977,222.562396 -155.706549,218.881015 -154.082024,217.999492 -154.082024,217.999492"/>
  <node id="974190777" x="-211.272803" y="418.953096" shape="-212.485778,414.648599 -209.425231,414.880446 -206.906140,417.987564 -211.372574,423.424119 -214.909484,421.555893 -215.444185,417.340778 -212.485778,414.648599 -212.485778,414.648599"/>
  <node id="974190782" x="-147.906475" y="-140.141962" shape="-148.206875,-144.603997 -144.517087,-143.059503 -143.449305,-140.507519 -144.939727,-136.795560 -147.422064,-135.696139 -151.172487,-137.086939 -149.781687,-140.837362 -149.751369,-140.914209 -148.206875,-144.603997 -148.206875,-144.603997"/>
  <node id="974190793" x="-314.663102" y="-41.824845" shape="-315.083440,-46.277183 -311.353434,-44.832518 -310.203725,-42.162419 -311.717417,-38.459887 -313.974755,-37.406001 -317.785169,-38.622861 -316.568309,-42.433275 -316.528105,-42.547178 -315.083440,-46.277183 -315.083440,-46.277183"/>
  <node id="974190798" x="-153.20051" y="159.48837"/>
  <node id="974190799" x="-123.462824" y="85.444907" shape="-123.827648,80.987677 -120.115934,82.478710 -119.007230,85.060612 -120.482032,88.778805 -123.098357,89.902167 -126.809951,88.410837 -123.827648,80.987677 -123.827648,80.987677"/>
  <node id="974190806" x="7.419519" y="-213.366209" shape="7.136995,-217.829412 10.820567,-216.270150 11.867520,-213.830195 10.459509,-210.086199 6.715513,-211.494211 6.694347,-211.502308 2.966546,-212.952653 4.416890,-216.680454 7.136995,-217.829412 7.136995,-217.829412"/>
  <node id="974190809" x="-40.301276" y="-61.689394" shape="-40.688427,-66.144741 -36.969289,-64.672323 -35.855633,-62.175459 -37.245038,-58.424519 -39.986060,-57.228381 -43.680957,-58.760613 -44.743878,-61.176280 -43.377329,-64.935607 -40.688427,-66.144741 -40.688427,-66.144741"/>
  <node id="974190814" x="-89.797023" y="57.666979" shape="-90.112239,53.205966 -86.417342,54.738198 -85.325452,57.595898 -87.057216,61.201587 -89.552617,62.132431 -93.222741,60.541775 -90.112239,53.205966 -90.112239,53.205966"/>
  <node id="974190817" x="36.373959" y="-48.731179" shape="36.023386,-50.939594 36.432919,-50.730310 38.351035,-47.686588 35.599756,-44.326567 32.385747,-46.707774 32.316738,-46.849968 32.434657,-50.848230 36.023386,-50.939594 36.023386,-50.939594"/>
  <node id="974190823" x="-7.507027" y="-192.572805" shape="-7.861510,-197.030870 -4.153265,-195.531230 -5.652905,-191.822985 -5.673573,-191.773777 -7.271630,-188.106869 -10.938538,-189.704925 -11.963741,-192.201728 -10.477917,-195.915530 -7.861510,-197.030870 -7.861510,-197.030870"/>
  <node id="974190825" x="-46.079436" y="-98.478474" shape="-46.652329,-102.913764 -42.874940,-101.597962 -44.190742,-97.820573 -44.210991,-97.765091 -45.637757,-94.028202 -49.374646,-95.454968 -50.540863,-98.169167 -49.003738,-101.862031 -46.652329,-102.913764 -46.652329,-102.913764"/>
  <node id="974190826" x="-58.539976" y="-265.455748" shape="-52.853294,-270.001257 -51.310260,-266.310858 -51.338463,-264.388879 -52.989113,-260.745343 -58.690984,-263.224785 -59.365301,-263.633980 -60.234141,-266.915133 -59.311493,-267.300948 -52.853294,-270.001257 -52.853294,-270.001257"/>
  <node id="974190828" x="-99.793287" y="38.889905"/>
  <node id="974190831" x="-189.854978" y="421.341737" shape="-189.263317,416.908912 -185.953721,419.155371 -187.651275,421.720805 -188.200180,422.464966 -191.480454,422.877259 -193.951855,419.548528 -190.878537,416.988310 -189.263317,416.908912 -189.263317,416.908912"/>
  <node id="974190842" x="-63.809046" y="247.993088" shape="-64.214492,240.724277 -60.313166,241.607258 -61.610984,248.403603 -65.456296,249.505229 -69.502620,244.608891 -67.415166,241.196775 -64.214492,240.724277 -64.214492,240.724277"/>
  <node id="974190843" x="-63.121501" y="258.695996" shape="-64.669418,254.500289 -60.693686,254.940239 -58.655498,258.461865 -60.254594,262.128320 -63.232598,263.166752 -66.764764,261.289572 -64.669418,254.500289 -64.669418,254.500289"/>
  <node id="974190844" x="-253.340776" y="118.787861"/>
  <node id="974190847" x="-77.317421" y="-249.059251" shape="-77.676414,-253.516955 -73.966653,-252.021067 -72.854168,-249.340982 -74.414085,-245.657687 -76.958241,-244.601562 -80.668064,-246.097294 -79.172301,-249.807195 -77.676414,-253.516955 -77.676414,-253.516955"/>
  <node id="974190854" x="-73.173245" y="-259.336695"/>
  <node id="974190855" x="-199.691339" y="414.69538" shape="-197.894330,410.600168 -195.336964,413.675861 -195.224853,414.470653 -196.831666,418.133733 -200.757477,416.660920 -200.970022,413.157534 -200.624088,412.663145 -197.894330,410.600168 -197.894330,410.600168"/>
  <node id="974190861" x="-104.944151" y="-231.275527"/>
  <node id="974190863" x="-167.551831" y="-91.44246" shape="-167.885945,-95.902098 -164.184589,-94.385534 -163.099259,-91.860311 -164.546007,-88.131113 -167.476132,-86.970965 -171.083608,-88.699004 -172.008080,-91.065837 -170.526879,-94.781485 -167.885945,-95.902098 -167.885945,-95.902098"/>
  <node id="974190864" x="-83.685893" y="242.14844"/>
  <node id="974190866" x="116.394972" y="-196.024388" shape="116.128042,-200.488551 119.806144,-198.916429 120.834241,-196.565580 119.491487,-192.797688 116.732533,-191.565010 113.030006,-193.078713 111.990140,-195.251438 113.133713,-199.084484 116.128042,-200.488551 116.128042,-200.488551"/>
  <node id="974190869" x="-206.343183" y="4.099558" shape="-206.601620,-0.365104 -202.926515,1.214011 -201.876374,3.881352 -203.488532,7.542082 -210.803563,4.423610 -209.278653,0.725685 -206.601620,-0.365104 -206.601620,-0.365104"/>
  <node id="974190872" x="-87.329959" y="262.983604" shape="-87.558904,258.517332 -83.004128,264.118147 -85.642095,267.124994 -87.618593,267.446416 -91.073389,265.430384 -91.040344,260.486997 -87.558904,258.517332 -87.558904,258.517332"/>
  <node id="974190876" x="-249.327599" y="-203.775773" shape="-248.707896,-205.677343 -244.904756,-204.437936 -246.144163,-200.634797 -247.845853,-199.556243 -251.814175,-200.058659 -252.372457,-200.500282 -253.774906,-204.246365 -250.028824,-205.648814 -248.707896,-205.677343 -248.707896,-205.677343"/>
  <node id="974190882" x="-89.13288" y="248.301009" shape="-87.978873,243.980330 -84.983932,246.631808 -88.170816,252.668438 -92.049584,251.691118 -93.592180,248.639599 -92.079332,244.936723 -87.978873,243.980330 -87.978873,243.980330"/>
  <node id="974190883" x="6.856973" y="-263.672476" shape="3.980921,-267.097140 11.288588,-264.006332 9.819697,-260.285799 7.142028,-259.209434 3.457573,-260.766607 2.391610,-263.426433 3.980921,-267.097140 3.980921,-267.097140"/>
  <node id="974190886" x="-79.347545" y="267.940199" shape="-82.323442,264.601930 -75.285564,266.069287 -75.413627,270.067236 -80.247081,272.320934 -83.391854,269.849011 -83.803698,268.317955 -82.323442,264.601930 -82.323442,264.601930"/>
  <node id="974190889" x="-27.36624" y="-278.490145"/>
  <node id="974190904" x="-65.152564" y="-48.523674" shape="-65.594227,-52.973947 -61.857343,-51.547169 -64.646625,-44.080249 -68.403741,-45.452868 -69.620173,-48.322504 -67.994066,-51.977059 -65.594227,-52.973947 -65.594227,-52.973947"/>
  <node id="974190907" x="-36.028413" y="-72.482096" shape="-36.429722,-76.936190 -32.705924,-75.475600 -31.583034,-72.970573 -32.970404,-69.218879 -35.641262,-68.026749 -39.360400,-69.499167 -40.461984,-71.896050 -39.157392,-75.677325 -36.429722,-76.936190 -36.429722,-76.936190"/>
  <node id="974190911" x="-274.235526" y="-135.144278" shape="-274.112931,-139.614733 -270.585605,-137.728475 -269.772028,-135.422101 -271.335168,-131.740174 -274.359785,-130.673869 -277.886409,-132.561440 -274.112931,-139.614733 -274.112931,-139.614733"/>
  <node id="974190920" x="-208.111839" y="416.390349"/>
  <node id="974190924" x="-214.355523" y="22.037257"/>
  <node id="974190925" x="1.788024" y="-215.557207" shape="-1.115312,-218.958771 6.240997,-215.970763 4.790653,-212.242962 2.142507,-211.099142 -1.565738,-212.598782 -2.675229,-215.275476 -1.115312,-218.958771 -1.115312,-218.958771"/>
  <node id="974190927" x="22.146657" y="-216.32032"/>
  <node id="974190949" x="-192.63708" y="437.980979" shape="-191.850281,433.578599 -188.643097,435.968990 -188.390239,439.382527 -191.210214,442.219381 -195.020749,441.764908 -197.094425,438.344401 -191.850281,433.578599 -191.850281,433.578599"/>
  <node id="974190961" x="-4.359864" y="96.731634" shape="-4.725192,92.274445 -1.013309,93.765058 0.099968,96.400118 -1.418752,100.100590 -4.058858,101.193629 -7.748856,99.649635 -8.831200,96.647064 -6.975010,93.103823 -4.725192,92.274445 -4.725192,92.274445"/>
  <node id="974190965" x="-114.279387" y="62.575558"/>
  <node id="9823252610" x="248.445684" y="-537.157678"/>
  <node id="Custom114" x="-447.590594" y="-137.923049"/>
  <node id="Custom115" x="-424.843634" y="-113.026593"/>
  <node id="Custom116" x="-368.08925200000004" y="418.32138"/>
  <node id="Custom117" x="-377.78986799999996" y="402.587"/>
  <node id="Custom118" x="196.35374299999998" y="-429.78705199999996"/>
  <node id="Custom119" x="-369.13268" y="-163.040911"/>
  <node id="Custom120" x="-444.015655" y="-139.883701"/>
  <node id="Custom121" x="-31.616121" y="-35.611912"/>
  <node id="Custom122" x="15.683966" y="-17.76978"/>
  <node id="Custom123" x="-395.716822" y="397.871567"/>
</nodes>
